examples/test_perturbation_outputs/pert_min_cost/pglib_opf_case3120sp_k.m
%% MATPOWER Case Format : Version 2
function mpc = pglib_opf_case3120sp_k
mpc.version = '2';

%%-----  Power Flow Data  -----%%
%% system MVA base
mpc.baseMVA = 100.0;
%% bus data
%    bus_i    type    Pd    Qd    Gs    Bs    area    Vm    Va    baseKV    zone    Vmax    Vmin
mpc.bus = [
	1	1	0.0	0.0	0.0	0.0	1	1.03	0.0	220.0	1	1.11	0.95				
	2	1	0.0	0.0	0.0	0.0	1	1.03	0.0	220.0	1	1.11	0.95				
	3	1	0.0	0.0	0.0	0.0	1	1.03	0.0	220.0	1	1.11	0.95				
	4	1	0.0	0.0	0.0	0.0	1	1.03	0.0	220.0	1	1.11	0.95				
	5	1	0.0	0.0	0.0	0.0	1	1.03	0.0	220.0	1	1.11	0.95				
	6	1	0.0	0.0	0.0	0.0	1	1.03	0.0	220.0	1	1.11	0.95				
	7	1	0.0	0.0	0.0	0.0	1	1.03	0.0	220.0	1	1.11	0.95				
	8	1	0.0	0.0	0.0	0.0	1	1.03	0.0	220.0	1	1.11	0.95				
	9	1	0.0	0.0	0.0	0.0	1	1.03	0.0	220.0	1	1.11	0.95				
	10	1	0.0	0.0	0.0	0.0	1	1.03	0.0	220.0	1	1.11	0.95				
	11	1	0.0	0.0	0.0	0.0	1	1.0	0.0	400.0	1	1.05	0.95				
	12	1	0.0	0.0	0.0	0.0	1	1.0	0.0	400.0	1	1.05	0.95				
	13	1	0.0	0.0	0.0	0.0	1	1.0	0.0	400.0	1	1.05	0.95				
	14	1	0.0	0.0	0.0	0.0	1	1.03	0.0	220.0	1	1.11	0.95				
	15	1	0.0	0.0	0.0	0.0	1	1.03	0.0	220.0	1	1.11	0.95				
	16	1	0.0	0.0	0.0	0.0	1	1.03	0.0	220.0	1	1.11	0.95				
	17	1	0.0	0.0	0.0	0.0	1	1.03	0.0	220.0	1	1.11	0.95				
	18	1	0.0	0.0	0.0	0.0	1	1.0	0.0	400.0	1	1.05	0.95				
	19	1	0.0	0.0	0.0	0.0	1	1.0	0.0	400.0	1	1.05	0.95				
	20	1	0.0	0.0	0.0	0.0	1	1.0	0.0	400.0	1	1.05	0.95				
	21	1	0.0	0.0	0.0	0.0	1	1.0	0.0	400.0	1	1.05	0.95				
	22	2	10.0	20.0	0.0	0.0	1	1.03	0.0	220.0	1	1.11	0.95				
	23	2	10.0	20.0	0.0	0.0	1	1.03	0.0	220.0	1	1.11	0.95				
	24	1	0.0	0.0	0.0	0.0	1	1.03	0.0	220.0	1	1.11	0.95				
	25	1	0.0	0.0	0.0	0.0	1	1.03	0.0	220.0	1	1.11	0.95				
	26	1	0.0	0.0	0.0	0.0	1	1.03	0.0	220.0	1	1.11	0.95				
	27	1	0.0	0.0	0.0	0.0	1	1.03	0.0	220.0	1	1.11	0.95				
	28	1	0.0	0.0	0.0	0.0	1	1.03	0.0	220.0	1	1.11	0.95				
	29	1	0.0	0.0	0.0	0.0	1	1.03	0.0	220.0	1	1.11	0.95				
	30	1	0.0	0.0	0.0	0.0	1	1.03	0.0	220.0	1	1.11	0.95				
	31	1	0.0	0.0	0.0	0.0	1	1.03	0.0	220.0	1	1.11	0.95				
	32	1	0.0	0.0	0.0	0.0	1	1.0	0.0	400.0	1	1.05	0.95				
	33	1	0.0	0.0	0.0	0.0	1	1.0	0.0	400.0	1	1.05	0.95				
	34	1	0.0	0.0	0.0	0.0	1	1.0	0.0	400.0	1	1.05	0.95				
	35	2	32.16	52.07000000000001	0.0	0.0	1	1.03	0.0	220.0	1	1.11	0.95				
	36	2	46.36	92.07	0.0	0.0	1	1.03	0.0	220.0	1	1.11	0.95				
	37	3	60.0	120.0	0.0	0.0	1	1.0	0.0	400.0	1	1.05	0.95				
	38	2	60.0	120.0	0.0	0.0	1	1.0	0.0	400.0	1	1.05	0.95				
	39	1	0.0	0.0	0.0	0.0	1	1.03	0.0	220.0	1	1.11	0.95				
	40	1	0.0	0.0	0.0	0.0	1	1.03	0.0	220.0	1	1.11	0.95				
	41	1	0.0	0.0	0.0	0.0	1	1.0	0.0	400.0	1	1.05	0.95				
	42	1	0.0	0.0	0.0	0.0	1	1.0	0.0	400.0	1	1.05	0.95				
	43	1	0.0	0.0	0.0	0.0	1	1.03	0.0	220.0	1	1.11	0.95				
	44	1	0.0	0.0	0.0	0.0	1	1.0	0.0	400.0	1	1.05	0.95				
	45	1	0.0	0.0	0.0	0.0	1	1.03	0.0	220.0	1	1.11	0.95				
	46	1	0.0	0.0	0.0	0.0	1	1.03	0.0	220.0	1	1.11	0.95				
	47	1	0.0	0.0	0.0	0.0	1	1.03	0.0	220.0	2	1.11	0.95				
	48	1	0.0	0.0	0.0	0.0	1	1.03	0.0	220.0	2	1.11	0.95				
	49	1	0.0	0.0	0.0	0.0	1	1.03	0.0	220.0	2	1.11	0.95				
	50	1	0.0	0.0	0.0	0.0	1	1.03	0.0	220.0	2	1.11	0.95				
	51	1	0.0	0.0	0.0	0.0	1	1.03	0.0	220.0	2	1.11	0.95				
	52	1	3.9699999999999998	1.0	0.0	0.0	1	1.03	0.0	220.0	2	1.11	0.95				
	53	1	0.0	0.0	0.0	0.0	1	1.03	0.0	220.0	2	1.11	0.95				
	54	1	0.0	0.0	0.0	0.0	1	1.0	0.0	400.0	2	1.05	0.95				
	55	2	13.0	30.0	0.0	0.0	1	1.03	0.0	220.0	2	1.11	0.95				
	56	2	39.35	90.07	0.0	0.0	1	1.03	0.0	220.0	2	1.11	0.95				
	57	2	26.0	60.0	0.0	0.0	1	1.03	0.0	220.0	2	1.11	0.95				
	58	2	26.0	50.0	0.0	0.0	1	1.0	0.0	400.0	2	1.05	0.95				
	59	2	26.0	50.0	0.0	0.0	1	1.0	0.0	400.0	2	1.05	0.95				
	60	1	0.0	0.0	0.0	0.0	1	1.03	0.0	220.0	2	1.11	0.95				
	61	1	0.0	0.0	0.0	0.0	1	1.0	0.0	400.0	2	1.05	0.95				
	62	1	0.0	0.0	0.0	0.0	1	1.0	0.0	400.0	2	1.05	0.95				
	63	1	0.0	0.0	0.0	0.0	1	1.0	0.0	400.0	2	1.05	0.95				
	64	1	0.0	0.0	0.0	0.0	1	1.03	0.0	220.0	2	1.11	0.95				
	65	1	0.0	0.0	0.0	0.0	1	1.03	0.0	220.0	2	1.11	0.95				
	66	1	0.0	0.0	0.0	0.0	1	1.0	0.0	400.0	2	1.05	0.95				
	67	1	0.0	0.0	0.0	0.0	1	1.0	0.0	400.0	2	1.05	0.95				
	68	2	13.0	30.0	0.0	0.0	1	1.03	0.0	220.0	2	1.11	0.95				
	69	2	26.0	60.0	0.0	0.0	1	1.03	0.0	220.0	2	1.11	0.95				
	70	1	0.0	2.25	0.0	0.0	1	1.0	0.0	400.0	2	1.05	0.95				
	71	2	26.0	60.0	0.0	0.0	1	1.0	0.0	400.0	2	1.05	0.95				
	72	1	0.0	0.0	0.0	0.0	1	1.03	0.0	220.0	2	1.11	0.95				
	73	1	0.0	0.0	0.0	0.0	1	1.03	0.0	220.0	2	1.11	0.95				
	74	1	0.0	0.0	0.0	0.0	1	1.03	0.0	220.0	2	1.11	0.95				
	75	1	0.0	0.0	0.0	0.0	1	1.03	0.0	220.0	2	1.11	0.95				
	76	1	0.0	0.0	0.0	0.0	1	1.03	0.0	220.0	2	1.11	0.95				
	77	1	0.0	0.0	0.0	0.0	1	1.03	0.0	220.0	2	1.11	0.95				
	78	1	0.0	0.0	0.0	0.0	1	1.0	0.0	400.0	2	1.05	0.95				
	79	1	0.0	0.0	0.0	0.0	1	1.0	0.0	400.0	2	1.05	0.95				
	80	1	0.0	0.0	0.0	0.0	1	1.03	0.0	220.0	2	1.11	0.95				
	81	1	0.0	0.0	0.0	0.0	1	1.03	0.0	220.0	2	1.11	0.95				
	82	1	0.0	0.0	0.0	0.0	1	1.03	0.0	220.0	2	1.11	0.95				
	83	1	0.0	0.0	0.0	0.0	1	1.03	0.0	220.0	3	1.11	0.95				
	84	1	6.41	2.01	0.0	0.0	1	1.03	0.0	220.0	3	1.11	0.95				
	85	1	13.889999999999999	5.02	0.0	0.0	1	1.03	0.0	220.0	3	1.11	0.95				
	86	1	0.0	0.0	0.0	0.0	1	1.03	0.0	220.0	3	1.11	0.95				
	87	1	0.0	0.0	0.0	0.0	1	1.03	0.0	220.0	3	1.11	0.95				
	88	1	0.0	0.0	0.0	0.0	1	1.03	0.0	220.0	3	1.11	0.95				
	89	1	0.0	0.0	0.0	0.0	1	1.03	0.0	220.0	3	1.11	0.95				
	90	1	0.0	0.0	0.0	0.0	1	1.03	0.0	220.0	3	1.11	0.95				
	91	1	0.0	0.0	0.0	0.0	1	1.03	0.0	220.0	3	1.11	0.95				
	92	2	28.000000000000004	70.0	0.0	0.0	1	1.03	0.0	220.0	3	1.11	0.95				
	93	2	28.000000000000004	68.0	0.0	0.0	1	1.03	0.0	220.0	3	1.11	0.95				
	94	1	2.78	1.91	0.0	0.0	1	1.03	0.0	220.0	3	1.11	0.95				
	95	1	0.0	0.0	0.0	0.0	1	1.03	0.0	220.0	3	1.11	0.95				
	96	2	32.0	142.0	0.0	0.0	1	1.0	0.0	400.0	3	1.05	0.95				
	97	1	0.0	0.0	0.0	0.0	1	1.0	0.0	400.0	3	1.05	0.95				
	98	1	0.0	0.0	0.0	0.0	1	1.03	0.0	220.0	3	1.11	0.95				
	99	1	0.0	0.0	0.0	0.0	1	1.03	0.0	220.0	3	1.11	0.95				
	100	1	0.0	0.0	0.0	0.0	1	1.03	0.0	220.0	3	1.11	0.95				
	101	1	38.8	-2.7	0.0	0.0	1	1.03	0.0	220.0	3	1.11	0.95				
	102	1	0.0	0.0	0.0	0.0	1	1.03	0.0	220.0	3	1.11	0.95				
	103	1	0.0	0.0	0.0	0.0	1	1.03	0.0	220.0	3	1.11	0.95				
	104	1	0.0	0.0	0.0	0.0	1	1.03	0.0	220.0	3	1.11	0.95				
	105	1	0.0	0.0	0.0	0.0	1	1.03	0.0	220.0	3	1.11	0.95				
	106	1	0.0	0.0	0.0	0.0	1	1.03	0.0	220.0	3	1.11	0.95				
	107	1	0.0	0.0	0.0	0.0	1	1.0	0.0	400.0	3	1.05	0.95				
	108	1	0.0	0.0	0.0	0.0	1	1.0	0.0	400.0	3	1.05	0.95				
	109	1	0.0	0.0	0.0	0.0	1	1.03	0.0	220.0	3	1.11	0.95				
	110	1	0.0	0.0	0.0	0.0	1	1.03	0.0	220.0	3	1.11	0.95				
	111	1	0.0	0.0	0.0	0.0	1	1.03	0.0	220.0	3	1.11	0.95				
	112	1	0.0	0.0	0.0	0.0	1	1.03	0.0	220.0	3	1.11	0.95				
	113	2	38.41	12.710000000000003	0.0	0.0	1	1.03	0.0	220.0	3	1.11	0.95				
	114	1	0.0	0.0	0.0	0.0	1	1.03	0.0	220.0	3	1.11	0.95				
	115	1	0.0	0.0	0.0	0.0	1	1.03	0.0	220.0	3	1.11	0.95				
	116	1	0.0	0.0	0.0	0.0	1	1.03	0.0	220.0	3	1.11	0.95				
	117	1	0.0	0.0	0.0	0.0	1	1.03	0.0	220.0	3	1.11	0.95				
	118	1	0.0	0.0	0.0	0.0	1	1.03	0.0	220.0	3	1.11	0.95				
	119	2	10.0	44.0	0.0	0.0	1	1.03	0.0	220.0	3	1.11	0.95				
	120	2	10.0	44.0	0.0	0.0	1	1.03	0.0	220.0	3	1.11	0.95				
	121	2	7.000000000000001	18.0	0.0	0.0	1	1.03	0.0	220.0	3	1.11	0.95				
	122	2	8.0	21.0	0.0	0.0	1	1.03	0.0	220.0	3	1.11	0.95				
	123	1	0.0	0.0	0.0	0.0	1	1.03	0.0	220.0	3	1.11	0.95				
	124	1	59.4	11.61	0.0	0.0	1	1.03	0.0	220.0	3	1.11	0.95				
	125	1	0.0	0.0	0.0	0.0	1	1.03	0.0	220.0	3	1.11	0.95				
	126	1	0.0	0.0	0.0	0.0	1	1.03	0.0	220.0	3	1.11	0.95				
	127	1	0.0	0.0	0.0	0.0	1	1.03	0.0	220.0	3	1.11	0.95				
	128	1	0.0	0.0	0.0	0.0	1	1.03	0.0	220.0	3	1.11	0.95				
	129	1	0.0	0.0	0.0	0.0	1	1.03	0.0	220.0	3	1.11	0.95				
	130	1	0.0	0.0	0.0	0.0	1	1.0	0.0	400.0	3	1.05	0.95				
	131	1	0.0	0.0	0.0	0.0	1	1.0	0.0	400.0	3	1.05	0.95				
	132	1	0.0	1.78	0.0	0.0	1	1.03	0.0	220.0	3	1.11	0.95				
	133	2	9.0	20.0	0.0	0.0	1	1.03	0.0	220.0	3	1.11	0.95				
	134	2	6.0	15.0	0.0	0.0	1	1.03	0.0	220.0	3	1.11	0.95				
	135	1	0.0	0.0	0.0	0.0	1	1.03	0.0	220.0	3	1.11	0.95				
	136	1	0.0	0.0	0.0	0.0	1	1.0	0.0	400.0	3	1.05	0.95				
	137	1	0.0	0.0	0.0	0.0	1	1.0	0.0	400.0	3	1.05	0.95				
	138	1	0.0	0.0	0.0	0.0	1	1.0	0.0	400.0	3	1.05	0.95				
	139	1	0.0	0.0	0.0	0.0	1	1.0	0.0	400.0	3	1.05	0.95				
	140	1	0.0	0.0	0.0	0.0	1	1.03	0.0	220.0	3	1.11	0.95				
	141	1	0.0	0.0	0.0	0.0	1	1.03	0.0	220.0	3	1.11	0.95				
	142	2	18.2	37.21	0.0	0.0	1	1.03	0.0	220.0	3	1.11	0.95				
	143	2	41.52	73.01	0.0	0.0	1	1.03	0.0	220.0	3	1.11	0.95				
	144	2	28.000000000000004	66.0	0.0	0.0	1	1.0	0.0	400.0	3	1.05	0.95				
	145	1	0.0	0.0	0.0	0.0	1	1.0	0.0	400.0	3	1.05	0.95				
	146	1	0.0	0.0	0.0	0.0	1	1.03	0.0	220.0	3	1.11	0.95				
	147	1	0.0	0.0	0.0	0.0	1	1.03	0.0	220.0	3	1.11	0.95				
	148	1	0.0	0.0	0.0	0.0	1	1.03	0.0	220.0	3	1.11	0.95				
	149	1	0.0	0.0	0.0	0.0	1	1.03	0.0	220.0	3	1.11	0.95				
	150	1	0.0	-0.79	0.0	0.0	1	1.03	0.0	220.0	3	1.11	0.95				
	151	1	0.0	-0.79	0.0	0.0	1	1.03	0.0	220.0	3	1.11	0.95				
	152	2	7.7	20.0	0.0	0.0	1	1.03	0.0	220.0	4	1.11	0.95				
	153	2	7.8	20.0	0.0	0.0	1	1.03	0.0	220.0	4	1.11	0.95				
	154	1	0.0	0.0	0.0	0.0	1	1.03	0.0	220.0	4	1.11	0.95				
	155	1	0.0	0.0	0.0	0.0	1	1.03	0.0	220.0	4	1.11	0.95				
	156	1	0.0	0.0	0.0	0.0	1	1.03	0.0	220.0	4	1.11	0.95				
	157	1	0.0	0.0	0.0	0.0	1	1.03	0.0	220.0	4	1.11	0.95				
	158	1	0.0	0.0	0.0	0.0	1	1.03	0.0	220.0	4	1.11	0.95				
	159	1	0.0	0.0	0.0	0.0	1	1.0	0.0	400.0	4	1.05	0.95				
	160	1	0.0	0.0	0.0	0.0	1	1.0	0.0	400.0	4	1.05	0.95				
	161	1	0.0	0.0	0.0	0.0	1	1.03	0.0	220.0	4	1.11	0.95				
	162	1	0.0	0.0	0.0	0.0	1	1.03	0.0	220.0	4	1.11	0.95				
	163	1	0.0	0.0	0.0	0.0	1	1.03	0.0	220.0	4	1.11	0.95				
	164	1	0.0	0.0	0.0	0.0	1	1.03	0.0	220.0	4	1.11	0.95				
	165	1	0.0	0.0	0.0	0.0	1	1.03	0.0	220.0	4	1.11	0.95				
	166	1	0.0	0.0	0.0	0.0	1	1.03	0.0	220.0	4	1.11	0.95				
	167	1	0.0	-13.01	0.0	0.0	1	1.03	0.0	220.0	4	1.11	0.95				
	168	1	0.0	0.0	0.0	0.0	1	1.03	0.0	220.0	4	1.11	0.95				
	169	2	12.0	30.0	0.0	0.0	1	1.03	0.0	220.0	4	1.11	0.95				
	170	2	19.91	36.57	0.0	0.0	1	1.03	0.0	220.0	4	1.11	0.95				
	171	2	12.0	30.0	0.0	0.0	1	1.0	0.0	400.0	4	1.05	0.95				
	172	2	12.0	30.0	0.0	0.0	1	1.0	0.0	400.0	4	1.05	0.95				
	173	1	0.0	0.0	0.0	0.0	1	1.03	0.0	220.0	4	1.11	0.95				
	174	1	0.0	0.0	0.0	0.0	1	1.03	0.0	220.0	4	1.11	0.95				
	175	1	0.0	0.0	0.0	0.0	1	1.03	0.0	220.0	4	1.11	0.95				
	176	1	0.0	0.0	0.0	0.0	1	1.03	0.0	220.0	4	1.11	0.95				
	177	2	30.5	64.2	0.0	0.0	1	1.03	0.0	220.0	4	1.11	0.95				
	178	2	58.9	96.0	0.0	0.0	1	1.03	0.0	220.0	4	1.11	0.95				
	179	1	0.0	0.0	0.0	0.0	1	1.03	0.0	220.0	4	1.11	0.95				
	180	2	26.5	64.2	0.0	0.0	1	1.0	0.0	400.0	4	1.05	0.95				
	181	1	0.0	0.0	0.0	0.0	1	1.0	0.0	400.0	4	1.05	0.95				
	182	1	0.0	0.0	0.0	0.0	1	1.03	0.0	220.0	4	1.11	0.95				
	183	1	0.0	0.0	0.0	0.0	1	1.03	0.0	220.0	4	1.11	0.95				
	184	1	0.0	0.0	0.0	0.0	1	1.0	0.0	400.0	4	1.05	0.95				
	185	1	0.0	0.0	0.0	0.0	1	1.0	0.0	400.0	4	1.05	0.95				
	186	1	0.0	0.0	0.0	0.0	1	1.0	0.0	400.0	4	1.05	0.95				
	187	1	0.0	0.0	0.0	0.0	1	1.0	0.0	400.0	4	1.05	0.95				
	188	2	12.0	30.0	0.0	0.0	1	1.03	0.0	220.0	4	1.11	0.95				
	189	2	23.8	60.0	0.0	0.0	1	1.03	0.0	220.0	4	1.11	0.95				
	190	2	38.0	64.0	0.0	0.0	1	1.0	0.0	400.0	4	1.05	0.95				
	191	1	0.0	0.0	0.0	0.0	1	1.03	0.0	220.0	4	1.11	0.95				
	192	1	0.0	0.0	0.0	0.0	1	1.03	0.0	220.0	4	1.11	0.95				
	193	1	0.0	0.0	0.0	0.0	1	1.03	0.0	220.0	4	1.11	0.95				
	194	1	0.0	0.0	0.0	0.0	1	1.03	0.0	220.0	4	1.11	0.95				
	195	1	0.0	0.0	0.0	0.0	1	1.03	0.0	220.0	4	1.11	0.95				
	196	1	0.0	0.0	0.0	0.0	1	1.03	0.0	220.0	4	1.11	0.95				
	197	1	0.0	0.0	0.0	0.0	1	1.0	0.0	400.0	4	1.05	0.95				
	198	1	0.0	0.0	0.0	0.0	1	1.03	0.0	220.0	4	1.11	0.95				
	199	1	0.0	0.0	0.0	0.0	1	1.03	0.0	220.0	4	1.11	0.95				
	200	1	0.0	0.0	0.0	0.0	1	1.03	0.0	220.0	4	1.11	0.95				
...
];

%% generator data
%    bus    Pg    Qg    Qmax    Qmin    Vg    mBase    status    Pmax    Pmin    Pc1    Pc2    Qc1min    Qc1max    Qc2min    Qc2max    ramp_agc    ramp_10    ramp_30    ramp_q    apf
mpc.gen = [
	22	165.5	50.5	162.0	-61.0	1.03	235.0	1	221.0	110.00000000000001															
	23	170.0	57.49999999999999	140.0	-25.0	1.03	235.0	1	200.0	140.0															
	35	0.0	0.0	190.0	-19.0	1.03	426.0	0	370.0	240.0															
	35	0.0	0.0	190.0	-19.0	1.03	426.0	0	370.0	240.0															
	35	305.0	85.5	190.0	-19.0	1.03	426.0	1	370.0	240.0															
	36	305.0	85.5	190.0	-19.0	1.03	426.0	1	370.0	240.0															
	36	305.0	85.5	190.0	-19.0	1.03	426.0	1	370.0	240.0															
	37	305.0	85.5	190.0	-19.0	1.0	426.0	1	370.0	240.0															
	37	305.0	85.5	190.0	-19.0	1.0	426.0	1	370.0	240.0															
	37	305.0	85.5	190.0	-19.0	1.0	426.0	1	370.0	240.0															
	38	305.0	85.5	190.0	-19.0	1.0	426.0	1	370.0	240.0															
	38	305.0	85.5	190.0	-19.0	1.0	426.0	1	370.0	240.0															
	38	305.0	85.5	190.0	-19.0	1.0	426.0	1	370.0	240.0															
	55	162.5	59.5	152.0	-33.0	1.03	235.0	1	215.0	110.00000000000001															
	55	0.0	0.0	152.0	-33.0	1.03	235.0	0	220.00000000000003	125.0															
	56	0.0	0.0	149.0	-33.0	1.03	235.0	0	225.0	125.0															
	56	167.5	57.99999999999999	149.0	-33.0	1.03	235.0	1	225.0	110.00000000000001															
	57	167.5	57.99999999999999	149.0	-33.0	1.03	235.0	1	225.0	110.00000000000001															
	57	172.5	57.99999999999999	149.0	-33.0	1.03	235.0	1	225.0	120.0															
	58	395.0	158.0	363.0	-47.0	1.0	588.0	1	535.0	254.99999999999997															
	59	405.0	124.0	348.0	-100.0	1.0	588.0	1	560.0	250.0															
	68	177.0	53.0	120.0	-14.000000000000002	1.03	235.0	1	225.0	129.0															
	69	177.0	53.0	120.0	-14.000000000000002	1.03	235.0	1	225.0	129.0															
	69	177.0	44.5	99.0	-10.0	1.03	235.0	1	225.0	129.0															
	70	0.0	0.0	120.0	-14.000000000000002	1.0	235.0	0	225.0	129.0															
	70	0.0	0.0	120.0	-14.000000000000002	1.0	235.0	0	225.0	129.0															
	71	177.0	44.5	99.0	-10.0	1.0	235.0	1	225.0	129.0															
	71	177.0	53.0	120.0	-14.000000000000002	1.0	235.0	1	225.0	129.0															
	92	180.0	63.5	134.0	-7.000000000000001	1.03	271.0	1	220.00000000000003	140.0															
	92	182.5	62.5	131.0	-6.0	1.03	271.0	1	225.0	140.0															
	93	0.0	0.0	131.0	-6.0	1.03	271.0	0	225.0	140.0															
	93	182.5	62.5	131.0	-6.0	1.03	271.0	1	225.0	140.0															
	93	182.5	62.5	131.0	-6.0	1.03	271.0	1	225.0	140.0															
	96	281.5	91.5	213.0	-30.0	1.0	426.0	1	383.0	180.0															
	96	280.0	90.5	212.0	-31.0	1.0	435.0	1	380.0	180.0															
	113	0.0	0.0	0.0	0.0	1.03	12.0	0	12.0	0.0															
	113	0.0	0.0	0.0	0.0	1.03	6.0	0	6.0	0.0															
	113	10.5	0.0	0.0	0.0	1.03	26.0	1	21.0	0.0															
	119	172.5	55.00000000000001	120.0	-10.0	1.03	271.0	1	225.0	120.0															
	120	172.5	55.00000000000001	120.0	-10.0	1.03	271.0	1	225.0	120.0															
	121	95.0	36.0	73.0	-1.0	1.03	150.0	1	120.0	70.0															
	122	95.0	36.0	73.0	-1.0	1.03	150.0	1	120.0	70.0															
	132	0.0	0.0	79.0	0.0	1.03	150.0	0	120.0	70.0															
	133	95.0	39.5	79.0	0.0	1.03	150.0	1	120.0	70.0															
	134	95.0	15.5	31.0	0.0	1.03	118.0	1	110.00000000000001	80.0															
	142	175.0	50.0	135.0	-35.0	1.03	271.0	1	215.0	135.0															
	143	175.0	50.0	135.0	-35.0	1.03	271.0	1	215.0	135.0															
	143	180.0	52.5	140.0	-35.0	1.03	271.0	1	225.0	135.0															
	144	180.0	52.0	140.0	-36.0	1.0	271.0	1	225.0	135.0															
	144	177.5	50.5	137.0	-36.0	1.0	271.0	1	220.00000000000003	135.0															
	150	0.0	0.0	72.0	-28.999999999999996	1.03	150.0	0	135.0	-135.0															
	150	0.0	0.0	72.0	-28.999999999999996	1.03	150.0	0	135.0	-135.0															
	151	0.0	0.0	72.0	-28.999999999999996	1.03	150.0	0	135.0	-135.0															
	151	0.0	0.0	72.0	-28.999999999999996	1.03	150.0	0	135.0	-135.0															
	152	110.00000000000001	35.0	85.0	-15.0	1.03	150.0	1	120.0	100.0															
	152	0.0	0.0	85.0	-15.0	1.03	150.0	0	120.0	100.0															
	153	110.00000000000001	35.0	85.0	-15.0	1.03	150.0	1	120.0	100.0															
	167	0.0	0.0	12.0	0.0	1.03	51.0	0	50.0	40.0															
	169	170.0	45.0	111.00000000000001	-21.0	1.03	238.0	1	204.99999999999997	135.0															
	170	0.0	0.0	102.0	-15.0	1.03	252.0	0	222.00000000000003	90.0															
	170	0.0	0.0	111.00000000000001	-21.0	1.03	238.0	0	204.99999999999997	135.0															
	170	166.0	44.0	119.0	-31.0	1.03	252.0	1	231.99999999999997	100.0															
	171	156.0	43.5	102.0	-15.0	1.0	252.0	1	222.00000000000003	90.0															
	172	0.0	0.0	93.0	-10.0	1.0	252.0	0	231.99999999999997	100.0															
	172	156.0	43.5	102.0	-15.0	1.0	252.0	1	222.00000000000003	90.0															
	177	182.5	46.0	127.0	-35.0	1.03	287.0	1	261.0	104.0															
	177	164.5	53.5	145.0	-38.0	1.03	264.0	1	235.0	94.0															
	178	0.0	0.0	103.0	-17.0	1.03	238.0	0	206.0	120.0															
	178	164.5	53.5	145.0	-38.0	1.03	264.0	1	235.0	94.0															
	178	182.5	46.0	127.0	-35.0	1.03	287.0	1	261.0	104.0															
	178	182.5	46.0	127.0	-35.0	1.03	287.0	1	261.0	104.0															
	180	163.0	43.0	103.0	-17.0	1.0	238.0	1	206.0	120.0															
	180	163.0	43.0	103.0	-17.0	1.0	238.0	1	206.0	120.0															
	188	187.5	40.0	112.00000000000001	-32.0	1.03	233.0	1	225.0	150.0															
	189	175.0	40.0	112.00000000000001	-32.0	1.03	233.0	1	200.0	150.0															
	189	0.0	0.0	112.00000000000001	-32.0	1.03	233.0	0	200.0	150.0															
	189	175.0	40.0	112.00000000000001	-32.0	1.03	233.0	1	200.0	150.0															
	190	325.0	17.5	294.0	-259.0	1.0	464.0	1	463.99999999999994	186.0															
	204	0.0	0.0	100.0	0.0	1.03	218.0	0	188.0	76.0															
	236	-10.5	21.5	105.0	-62.0	1.0	209.0	1	179.0	-200.0															
	236	-10.5	21.5	105.0	-62.0	1.0	209.0	1	179.0	-200.0															
	236	-10.5	27.500000000000004	130.0	-75.0	1.0	209.0	1	179.0	-200.0															
	237	-10.5	30.0	160.0	-100.0	1.0	209.0	1	179.0	-200.0															
	240	181.5	75.0	150.0	0.0	1.03	156.0	1	250.0	112.99999999999999															
	250	0.0	0.0	20.0	0.0	1.035	79.0	0	55.00000000000001	23.0															
	250	0.0	0.0	20.0	0.0	1.035	69.0	0	50.0	25.0															
	251	15.0	10.0	20.0	0.0	1.035	28.0	1	23.0	7.000000000000001															
	251	0.0	0.0	20.0	0.0	1.035	69.0	0	50.0	25.0															
	267	1.0	0.5	1.0	0.0	1.035	1.0	1	2.0	0.0															
	268	1.0	0.5	1.0	0.0	1.035	1.0	1	2.0	0.0															
	282	0.0	0.0	5.0	0.0	1.035	10.0	0	7.000000000000001	6.0															
	283	0.0	0.0	5.0	0.0	1.035	10.0	0	7.000000000000001	6.0															
	301	3.0	1.875	3.75	0.0	1.035	5.0	1	5.0	1.0															
	301	3.0	1.875	3.75	0.0	1.035	5.0	1	5.0	1.0															
	301	3.0	1.875	3.75	0.0	1.035	5.0	1	5.0	1.0															
	302	3.0	1.875	3.75	0.0	1.035	5.0	1	5.0	1.0															
	316	305.0	85.5	190.0	-19.0	1.035	426.0	1	370.0	240.0															
	322	0.0	0.0	2.0	0.0	1.035	4.0	0	6.0	1.0															
	322	0.0	0.0	2.0	0.0	1.035	4.0	0	6.0	1.0															
	369	15.0	2.0	4.0	0.0	1.035	30.0	1	30.0	0.0															
	398	0.0	0.0	5.0	0.0	1.035	8.0	0	7.000000000000001	5.0															
	402	0.5	0.5	1.0	0.0	1.035	1.0	1	1.0	0.0															
	402	0.5	0.5	1.0	0.0	1.035	1.0	1	1.0	0.0															
	402	0.5	0.5	1.0	0.0	1.035	1.0	1	1.0	0.0															
	409	0.0	0.0	7.000000000000001	0.0	1.035	31.0	0	27.0	11.0															
	409	20.5	3.5000000000000004	7.000000000000001	0.0	1.035	39.0	1	30.0	11.0															
	409	0.0	0.0	6.0	0.0	1.035	41.0	0	30.0	9.0															
	411	0.0	0.0	15.0	0.0	1.035	69.0	0	55.00000000000001	20.0															
	411	37.5	7.5	15.0	0.0	1.035	69.0	1	55.00000000000001	20.0															
	412	0.0	0.0	15.0	0.0	1.035	49.0	0	40.0	10.0															
	412	0.0	0.0	15.0	0.0	1.035	69.0	0	55.00000000000001	20.0															
	414	0.0	0.0	20.0	0.0	1.035	69.0	0	50.0	25.0															
	414	0.0	0.0	20.0	0.0	1.035	147.0	0	100.0	55.00000000000001															
	415	42.5	20.0	40.0	0.0	1.035	69.0	1	60.0	25.0															
	428	2.5	1.5	3.0	0.0	1.035	4.0	1	3.0	2.0															
	466	0.0	0.0	1.0	0.0	1.035	2.0	0	2.0	1.0															
	492	33.5	17.5	56.99999999999999	-22.0	1.035	69.0	1	52.0	15.0															
	493	35.0	17.5	56.99999999999999	-22.0	1.035	69.0	1	55.00000000000001	15.0															
	494	35.0	17.5	56.99999999999999	-22.0	1.035	69.0	1	55.00000000000001	15.0															
	494	35.0	17.5	56.99999999999999	-22.0	1.035	69.0	1	55.00000000000001	15.0															
	495	35.0	17.5	56.99999999999999	-22.0	1.035	69.0	1	55.00000000000001	15.0															
	495	40.0	21.5	71.0	-28.000000000000004	1.035	88.0	1	77.0	3.0															
	517	173.0	50.5	162.0	-61.0	1.035	235.0	1	225.99999999999997	120.0															
	517	0.0	0.0	12.0	0.0	1.035	49.0	0	25.0	12.0															
	518	13.5	6.0	12.0	0.0	1.035	49.0	1	17.0	10.0															
	522	0.0	0.0	2.0	0.0	1.035	6.0	0	4.0	4.0															
	542	0.0	0.1	0.2	0.0	1.035	0.0	1	0.0	0.0															
	571	0.0	0.0	4.0	0.0	1.035	8.0	0	7.000000000000001	3.0															
	580	0.0	0.0	3.0	0.0	1.035	5.0	0	3.0	3.0															
	587	4.0	4.25	4.7	3.8	1.035	7.0	1	7.000000000000001	1.0															
	587	4.0	4.25	4.7	3.8	1.035	7.0	1	7.000000000000001	1.0															
	587	0.0	0.0	4.7	3.8	1.035	7.0	0	7.000000000000001	1.0															
	599	2.5	1.0	2.0	0.0	1.035	4.0	1	3.0	2.0															
	633	0.0	0.0	2.0	0.0	1.035	5.0	0	4.0	3.0															
	663	1.5	0.35	0.7	0.0	1.035	2.0	1	2.0	1.0															
	663	0.0	0.0	0.7	0.0	1.035	2.0	0	2.0	1.0															
	669	0.0	0.0	3.0	0.0	1.035	6.0	0	4.0	3.0															
	740	44.5	18.5	35.0	2.0	1.035	63.0	1	52.0	37.0															
	740	0.0	0.0	23.0	2.0	1.035	38.0	0	30.0	10.0															
	740	0.0	0.0	85.0	6.0	1.035	150.0	0	105.0	50.0															
	740	77.5	45.5	85.0	6.0	1.035	150.0	1	105.0	50.0															
	741	0.0	0.0	23.0	2.0	1.035	38.0	0	30.0	10.0															
	741	0.0	0.0	23.0	2.0	1.035	38.0	0	30.0	10.0															
	741	20.0	13.5	25.0	2.0	1.035	38.0	1	30.0	10.0															
	741	96.5	45.5	85.0	6.0	1.035	150.0	1	125.0	68.0															
	741	0.0	0.0	85.0	6.0	1.035	150.0	0	105.0	50.0															
	762	1.5	0.35	0.7	0.0	1.035	2.0	1	2.0	1.0															
	764	0.5	0.5	1.0	0.0	1.035	4.0	1	1.0	0.0															
	772	0.0	0.0	18.0	2.0	1.035	38.0	0	35.0	9.0															
	772	14.499999999999998	16.0	30.0	2.0	1.035	38.0	1	20.0	9.0															
	773	0.0	0.0	18.0	2.0	1.035	38.0	0	35.0	9.0															
	773	0.0	0.0	18.0	2.0	1.035	38.0	0	35.0	9.0															
	773	0.0	0.0	18.0	2.0	1.035	38.0	0	35.0	9.0															
	773	63.5	35.5	65.0	6.0	1.035	121.0	1	97.0	30.0															
	774	0.0	0.0	18.0	2.0	1.035	38.0	0	35.0	9.0															
	774	0.0	0.0	18.0	2.0	1.035	38.0	0	30.0	9.0															
	774	0.0	0.0	14.000000000000002	2.0	1.035	32.0	0	28.000000000000004	9.0															
	809	4.5	2.0	4.0	0.0	1.035	5.0	1	8.0	1.0															
	809	0.0	0.0	2.0	0.0	1.035	2.0	0	2.0	1.0															
	829	0.0	0.0	4.5	0.2	1.035	6.0	0	4.0	4.0															
	844	1.5	0.0	0.0	0.0	1.035	6.0	1	3.0	0.0															
	853	0.0	0.0	0.0	0.0	1.035	4.0	0	5.0	0.0															
	876	46.5	15.0	30.0	0.0	1.035	65.0	1	93.0	0.0															
	876	18.0	15.0	30.0	0.0	1.035	65.0	1	36.0	0.0															
	879	0.0	0.0	0.0	0.0	1.035	12.0	0	3.0	0.0															
	886	0.0	0.0	0.0	0.0	1.035	5.0	0	6.0	0.0															
	887	0.0	0.0	0.0	0.0	1.035	6.0	0	6.0	0.0															
	922	180.0	57.99999999999999	149.0	-33.0	1.035	235.0	1	225.0	135.0															
	923	0.0	0.0	149.0	-33.0	1.035	235.0	0	225.0	110.00000000000001															
	931	0.0	0.0	0.0	0.0	1.035	3.0	0	3.0	0.0															
	937	0.0	0.0	0.0	0.0	1.035	12.0	0	12.0	0.0															
	947	0.0	0.0	30.0	0.0	1.035	168.0	0	170.0	66.0															
	947	0.0	0.0	30.0	0.0	1.035	72.0	0	61.0	34.0															
	953	0.0	0.0	0.0	0.0	1.035	8.0	0	21.0	0.0															
	967	0.0	0.0	0.0	0.0	1.035	6.0	0	7.000000000000001	0.0															
	970	0.0	0.0	0.0	0.0	1.035	3.0	0	10.0	0.0															
	985	15.0	0.0	0.0	0.0	1.035	3.0	1	30.0	0.0															
	990	1.0	0.0	0.0	0.0	1.035	1.0	1	2.0	0.0															
	995	0.0	0.0	0.0	0.0	1.035	1.0	0	2.0	0.0															
	1006	0.0	0.0	0.0	0.0	1.035	2.0	0	2.0	1.0															
	1011	177.0	53.0	120.0	-14.000000000000002	1.035	235.0	1	225.0	129.0															
	1013	0.0	0.0	30.0	0.0	1.035	37.0	0	36.0	0.0															
	1016	0.0	0.0	0.0	0.0	1.035	3.0	0	3.0	2.0															
	1036	0.0	0.0	30.0	0.0	1.035	101.0	0	101.0	49.0															
	1042	0.0	0.0	0.0	0.0	1.035	2.0	0	12.0	0.0															
	1057	6.0	15.0	30.0	0.0	1.035	10.0	1	12.0	0.0															
	1060	0.0	0.0	0.0	0.0	1.035	2.0	0	2.0	1.0															
	1062	0.0	0.0	0.0	0.0	1.035	6.0	0	6.0	1.0															
	1067	4.0	0.0	0.0	0.0	1.035	11.0	1	8.0	0.0															
	1071	0.0	0.0	23.0	0.0	1.035	52.0	0	68.0	5.0															
	1071	36.5	11.5	23.0	0.0	1.035	52.0	1	68.0	5.0															
	1071	0.0	0.0	11.0	0.0	1.035	25.0	0	31.0	-32.0															
	1071	0.0	0.0	10.0	0.0	1.035	25.0	0	31.0	-32.0															
	1086	0.0	0.0	24.0	-1.0	1.035	69.0	0	50.0	8.0															
	1086	108.5	29.5	74.0	-15.0	1.035	58.0	1	125.0	92.0															
	1087	105.0	29.5	74.0	-15.0	1.035	58.0	1	125.0	85.0															
	1087	0.0	0.0	28.000000000000004	-2.0	1.035	40.0	0	41.0	12.0															
	1099	0.0	0.0	0.0	0.0	1.035	3.0	0	3.0	0.0															
	1126	0.0	0.0	0.0	0.0	1.035	4.0	0	3.0	2.0															
	1132	15.5	0.0	0.0	0.0	1.035	31.0	1	31.0	0.0															
...
];

%% branch data
%    f_bus    t_bus    r    x    b    rateA    rateB    rateC    ratio    angle    status    angmin    angmax
mpc.branch = [
	9	11	0.00064	0.0305	0.0	400.0	400.0	400.0	1.09271	0.0	1	-29.999999999999996	29.999999999999996								
	13	12	0.00069	0.03946	0.0	250.0	250.0	250.0	0.9999	0.0	1	-29.999999999999996	29.999999999999996								
	20	18	0.00088	0.05709	0.0	330.0	330.0	330.0	0.9999	0.0	1	-29.999999999999996	29.999999999999996								
	34	33	0.0007	0.03652	0.0	250.0	250.0	250.0	0.9999	0.0	1	-29.999999999999996	29.999999999999996								
	35	37	0.00036	0.02519	0.0	500.0	500.0	500.0	1.07313	0.0	1	-29.999999999999996	29.999999999999996								
	36	38	0.00036	0.02519	0.0	500.0	500.0	500.0	1.07313	0.0	1	-29.999999999999996	29.999999999999996								
	53	54	0.00034	0.02097	0.0	500.0	500.0	500.0	1.0755	0.0	1	-29.999999999999996	29.999999999999996								
	57	59	0.00034	0.02097	0.0	500.0	500.0	500.0	1.07313	0.0	1	-29.999999999999996	29.999999999999996								
	68	70	0.00081	0.03	0.0	400.0	400.0	400.0	1.10102	0.0	1	-29.999999999999996	29.999999999999996								
	105	107	0.00075	0.02445	-0.00832	330.0	330.0	330.0	1.039	0.0	1	-29.999999999999996	29.999999999999996								
	106	108	0.0004	0.0253	0.0	500.0	500.0	500.0	1.0457	0.0	1	-29.999999999999996	29.999999999999996								
	142	145	0.00053	0.02875	-0.016	400.0	400.0	400.0	1.06299	0.0	1	-29.999999999999996	29.999999999999996								
	170	171	0.00064	0.0305	0.0	400.0	400.0	400.0	1.07408	0.0	1	-29.999999999999996	29.999999999999996								
	177	180	0.00023	0.023	0.0	500.0	500.0	500.0	1.07426	0.0	1	-29.999999999999996	29.999999999999996								
	178	181	0.00023	0.023	0.0	500.0	500.0	500.0	1.07426	0.0	1	-29.999999999999996	29.999999999999996								
	185	184	0.00032	0.04392	0.0	330.0	330.0	330.0	0.9999	0.0	1	-29.999999999999996	29.999999999999996								
	188	190	0.0003	0.02732	0.0	500.0	500.0	500.0	1.10037	0.0	1	-29.999999999999996	29.999999999999996								
	195	197	0.00035	0.02375	0.0	500.0	500.0	500.0	1.08671	0.0	1	-29.999999999999996	29.999999999999996								
	208	209	0.00051	0.0275	0.0	400.0	400.0	400.0	1.07702	0.0	1	-29.999999999999996	29.999999999999996								
	213	211	0.00084	0.06858	0.0	250.0	250.0	250.0	0.9999	0.0	1	-29.999999999999996	29.999999999999996								
	216	218	0.00033	0.02711	0.0	500.0	500.0	500.0	1.08613	0.0	1	-29.999999999999996	29.999999999999996								
	220	218	0.00032	0.0464	0.0	330.0	330.0	330.0	0.9999	0.0	1	-29.999999999999996	29.999999999999996								
	227	225	0.00113	0.05647	0.0	330.0	330.0	330.0	0.9999	0.0	1	-29.999999999999996	29.999999999999996								
	224	226	0.00075	0.02469	-0.008	330.0	330.0	330.0	1.04544	0.0	1	-29.999999999999996	29.999999999999996								
	3116	180	0.00029	0.00317	0.09184	773.0	773.0	773.0	0	0	1	-29.999999999999996	29.999999999999996								
	3116	181	0.0003	0.00326	0.09536	771.0	771.0	771.0	0	0	1	-29.999999999999996	29.999999999999996								
	240	82	0.01475	0.08595	0.13036	315.0	315.0	315.0	0	0	1	-29.999999999999996	29.999999999999996								
	3114	90	0.01244	0.06959	0.10842	309.0	309.0	309.0	0	0	1	-29.999999999999996	29.999999999999996								
	3114	120	0.01207	0.06905	0.11519	312.0	312.0	312.0	0	0	1	-29.999999999999996	29.999999999999996								
	144	3115	0.00168	0.01603	0.51488	724.0	724.0	724.0	0	0	1	-29.999999999999996	29.999999999999996								
	3117	169	0.0018	0.01616	0.0484	387.0	387.0	387.0	0	0	1	-29.999999999999996	29.999999999999996								
	3117	170	0.0018	0.01616	0.0484	387.0	387.0	387.0	0	0	1	-29.999999999999996	29.999999999999996								
	3118	61	0.00223	0.02209	0.69011	737.0	737.0	737.0	0	0	1	-29.999999999999996	29.999999999999996								
	3118	62	0.00223	0.02209	0.69011	737.0	737.0	737.0	0	0	1	-29.999999999999996	29.999999999999996								
	97	3113	0.00293	0.03054	0.95472	755.0	755.0	755.0	0	0	1	-29.999999999999996	29.999999999999996								
	56	28	0.01174	0.07014	0.12689	319.0	319.0	319.0	0	0	1	-29.999999999999996	29.999999999999996								
	35	105	0.00919	0.06614	0.10451	348.0	348.0	348.0	0	0	1	-29.999999999999996	29.999999999999996								
	36	106	0.00822	0.05767	0.0982	344.0	344.0	344.0	0	0	1	-29.999999999999996	29.999999999999996								
	167	39	0.01698	0.12459	0.1957	231.0	231.0	231.0	0	0	1	-29.999999999999996	29.999999999999996								
	153	46	0.01298	0.06738	0.10284	250.0	250.0	250.0	0	0	1	-29.999999999999996	29.999999999999996								
	152	25	0.01068	0.0475	0.09495	277.0	277.0	277.0	0	0	1	-29.999999999999996	29.999999999999996								
	188	26	0.01436	0.10729	0.16081	231.0	231.0	231.0	0	0	1	-29.999999999999996	29.999999999999996								
	53	124	0.01488	0.08161	0.1148	266.0	266.0	266.0	0	0	1	-29.999999999999996	29.999999999999996								
	52	106	0.01116	0.07171	0.10367	267.0	267.0	267.0	0	0	1	-29.999999999999996	29.999999999999996								
	203	98	0.00552	0.05948	0.17077	317.0	317.0	317.0	0	0	1	-29.999999999999996	29.999999999999996								
	234	189	0.01118	0.06597	0.10778	267.0	267.0	267.0	0	0	1	-29.999999999999996	29.999999999999996								
	221	188	0.01682	0.08909	0.12993	295.0	295.0	295.0	0	0	1	-29.999999999999996	29.999999999999996								
	222	189	0.01384	0.08702	0.13484	295.0	295.0	295.0	0	0	1	-29.999999999999996	29.999999999999996								
	238	192	0.01517	0.09938	0.14492	197.0	197.0	197.0	0	0	1	-29.999999999999996	29.999999999999996								
	57	14	0.01457	0.07362	0.13344	294.0	294.0	294.0	0	0	1	-29.999999999999996	29.999999999999996								
	229	23	0.01403	0.10413	0.15949	231.0	231.0	231.0	0	0	1	-29.999999999999996	29.999999999999996								
	115	68	0.00374	0.0438	0.10096	438.99999999999994	438.99999999999994	438.99999999999994	0	0	1	-29.999999999999996	29.999999999999996								
	187	97	0.00194	0.02007	0.54307	753.0	753.0	753.0	0	0	1	-29.999999999999996	29.999999999999996								
	58	12	0.0015	0.01506	0.4032	742.0	742.0	742.0	0	0	1	-29.999999999999996	29.999999999999996								
	210	171	0.00296	0.03484	0.9296	800.0	800.0	800.0	0	0	1	-29.999999999999996	29.999999999999996								
	136	70	0.00169	0.01931	0.53814	789.0	789.0	789.0	0	0	1	-29.999999999999996	29.999999999999996								
	38	108	0.00137	0.01569	0.43744	790.0	790.0	790.0	0	0	1	-29.999999999999996	29.999999999999996								
	37	139	0.00234	0.02677	0.74653	790.0	790.0	790.0	0	0	1	-29.999999999999996	29.999999999999996								
	32	218	0.00217	0.02513	0.67098	794.0	794.0	794.0	0	0	1	-29.999999999999996	29.999999999999996								
	136	78	0.00152	0.01739	0.48083	790.0	790.0	790.0	0	0	1	-29.999999999999996	29.999999999999996								
	138	78	0.00468	0.05347	1.48883	537.0	537.0	537.0	0	0	1	-29.999999999999996	29.999999999999996								
	97	41	0.00355	0.03617	0.95894	717.0	717.0	717.0	0	0	1	-29.999999999999996	29.999999999999996								
	107	41	0.00097	0.01052	0.28395	770.0	770.0	770.0	0	0	1	-29.999999999999996	29.999999999999996								
	61	137	0.00144	0.01446	0.51213	742.0	742.0	742.0	0	0	1	-29.999999999999996	29.999999999999996								
	15	6	0.013	0.09781	0.14013	326.0	326.0	326.0	0	0	1	-29.999999999999996	29.999999999999996								
	40	15	0.00525	0.03847	0.06053	231.0	231.0	231.0	0	0	1	-29.999999999999996	29.999999999999996								
	31	6	0.00457	0.03351	0.05245	317.0	317.0	317.0	0	0	1	-29.999999999999996	29.999999999999996								
	22	9	0.01469	0.10915	0.16676	293.0	293.0	293.0	0	0	1	-29.999999999999996	29.999999999999996								
	27	14	0.01262	0.09326	0.14324	231.0	231.0	231.0	0	0	1	-29.999999999999996	29.999999999999996								
	35	7	0.00924	0.05052	0.07698	295.0	295.0	295.0	0	0	1	-29.999999999999996	29.999999999999996								
	22	3	0.01068	0.07936	0.12155	231.0	231.0	231.0	0	0	1	-29.999999999999996	29.999999999999996								
	35	25	0.00585	0.04027	0.07161	341.0	341.0	341.0	0	0	1	-29.999999999999996	29.999999999999996								
	36	24	0.00585	0.04027	0.07161	341.0	341.0	341.0	0	0	1	-29.999999999999996	29.999999999999996								
	14	8	0.00558	0.04147	0.0629	231.0	231.0	231.0	0	0	1	-29.999999999999996	29.999999999999996								
	43	15	0.00089	0.0063	0.0108	231.0	231.0	231.0	0	0	1	-29.999999999999996	29.999999999999996								
	29	15	0.00442	0.02374	0.04477	303.0	303.0	303.0	0	0	1	-29.999999999999996	29.999999999999996								
	45	7	0.00494	0.0269	0.04225	250.0	250.0	250.0	0	0	1	-29.999999999999996	29.999999999999996								
	24	6	0.00287	0.01671	0.02467	295.0	295.0	295.0	0	0	1	-29.999999999999996	29.999999999999996								
	35	1	0.0012	0.0089	0.01512	353.0	353.0	353.0	0	0	1	-29.999999999999996	29.999999999999996								
	36	2	0.0012	0.0089	0.01513	353.0	353.0	353.0	0	0	1	-29.999999999999996	29.999999999999996								
	36	30	0.00399	0.02901	0.04808	350.0	350.0	350.0	0	0	1	-29.999999999999996	29.999999999999996								
	32	12	0.00298	0.03445	0.94221	794.0	794.0	794.0	0	0	1	-29.999999999999996	29.999999999999996								
	37	32	0.00358	0.04122	1.13382	696.0	696.0	696.0	0	0	1	-29.999999999999996	29.999999999999996								
	19	38	0.00342	0.03928	1.08288	730.0	730.0	730.0	0	0	1	-29.999999999999996	29.999999999999996								
	11	21	0.00286	0.03355	0.90157	799.0	799.0	799.0	0	0	1	-29.999999999999996	29.999999999999996								
	44	21	0.00023	0.00264	0.07296	791.0	791.0	791.0	0	0	1	-29.999999999999996	29.999999999999996								
	11	19	0.0011	0.01271	0.35206	793.0	793.0	793.0	0	0	1	-29.999999999999996	29.999999999999996								
	184	38	0.00139	0.0159	0.44176	790.0	790.0	790.0	0	0	1	-29.999999999999996	29.999999999999996								
	77	72	0.01054	0.06151	0.09306	197.0	197.0	197.0	0	0	1	-29.999999999999996	29.999999999999996								
	74	69	0.00905	0.06723	0.10296	231.0	231.0	231.0	0	0	1	-29.999999999999996	29.999999999999996								
	81	47	0.0114	0.06587	0.09975	274.0	274.0	274.0	0	0	1	-29.999999999999996	29.999999999999996								
	64	47	0.0107	0.06628	0.10825	287.0	287.0	287.0	0	0	1	-29.999999999999996	29.999999999999996								
	72	55	0.00543	0.03733	0.06668	341.0	341.0	341.0	0	0	1	-29.999999999999996	29.999999999999996								
	73	57	0.00543	0.03733	0.06668	341.0	341.0	341.0	0	0	1	-29.999999999999996	29.999999999999996								
	73	47	0.00657	0.0481	0.0727	319.0	319.0	319.0	0	0	1	-29.999999999999996	29.999999999999996								
	82	65	0.00302	0.0201	0.03069	336.0	336.0	336.0	0	0	1	-29.999999999999996	29.999999999999996								
	65	51	0.007	0.05138	0.08084	231.0	231.0	231.0	0	0	1	-29.999999999999996	29.999999999999996								
	49	68	0.00329	0.02506	0.0439	317.0	317.0	317.0	0	0	1	-29.999999999999996	29.999999999999996								
	50	48	0.00789	0.05868	0.08985	231.0	231.0	231.0	0	0	1	-29.999999999999996	29.999999999999996								
	69	50	0.00558	0.04062	0.06491	341.0	341.0	341.0	0	0	1	-29.999999999999996	29.999999999999996								
	81	49	0.00452	0.03366	0.05156	341.0	341.0	341.0	0	0	1	-29.999999999999996	29.999999999999996								
	81	80	0.00134	0.00996	0.01337	287.0	287.0	287.0	0	0	1	-29.999999999999996	29.999999999999996								
	76	55	0.00618	0.04353	0.07649	341.0	341.0	341.0	0	0	1	-29.999999999999996	29.999999999999996								
	77	56	0.00618	0.04353	0.07649	266.0	266.0	266.0	0	0	1	-29.999999999999996	29.999999999999996								
	76	52	0.01219	0.0637	0.09333	266.0	266.0	266.0	0	0	1	-29.999999999999996	29.999999999999996								
	75	53	0.00246	0.01826	0.02798	231.0	231.0	231.0	0	0	1	-29.999999999999996	29.999999999999996								
	60	52	0.00242	0.01531	0.02249	287.0	287.0	287.0	0	0	1	-29.999999999999996	29.999999999999996								
	63	59	0.0017	0.01977	0.53386	796.0	796.0	796.0	0	0	1	-29.999999999999996	29.999999999999996								
	71	67	0.00116	0.013	0.33856	782.0	782.0	782.0	0	0	1	-29.999999999999996	29.999999999999996								
	54	70	0.00218	0.02536	0.68579	796.0	796.0	796.0	0	0	1	-29.999999999999996	29.999999999999996								
	78	71	0.00105	0.01123	0.28195	765.0	765.0	765.0	0	0	1	-29.999999999999996	29.999999999999996								
	62	79	0.00119	0.01428	0.36666	808.0	808.0	808.0	0	0	1	-29.999999999999996	29.999999999999996								
	66	58	0.00184	0.02139	0.5777	796.0	796.0	796.0	0	0	1	-29.999999999999996	29.999999999999996								
	111	142	0.00488	0.03362	0.05961	341.0	341.0	341.0	0	0	1	-29.999999999999996	29.999999999999996								
	89	122	0.01093	0.05919	0.08439	180.0	180.0	180.0	0	0	1	-29.999999999999996	29.999999999999996								
	122	109	0.00194	0.01415	0.0223	341.0	341.0	341.0	0	0	1	-29.999999999999996	29.999999999999996								
	93	148	0.00192	0.01355	0.023	341.0	341.0	341.0	0	0	1	-29.999999999999996	29.999999999999996								
	148	100	0.00238	0.01667	0.02846	341.0	341.0	341.0	0	0	1	-29.999999999999996	29.999999999999996								
	149	147	0.00066	0.00496	0.00758	319.0	319.0	319.0	0	0	1	-29.999999999999996	29.999999999999996								
	121	149	0.00537	0.04039	0.06005	319.0	319.0	319.0	0	0	1	-29.999999999999996	29.999999999999996								
	106	149	0.00083	0.00525	0.00868	250.0	250.0	250.0	0	0	1	-29.999999999999996	29.999999999999996								
	115	135	0.01589	0.0832	0.11439	266.0	266.0	266.0	0	0	1	-29.999999999999996	29.999999999999996								
	95	128	0.00217	0.01459	0.02575	197.0	197.0	197.0	0	0	1	-29.999999999999996	29.999999999999996								
	132	116	0.01773	0.11678	0.16361	250.0	250.0	250.0	0	0	1	-29.999999999999996	29.999999999999996								
	143	88	0.00593	0.04093	0.07215	341.0	341.0	341.0	0	0	1	-29.999999999999996	29.999999999999996								
	123	105	0.0039	0.02847	0.04498	317.0	317.0	317.0	0	0	1	-29.999999999999996	29.999999999999996								
	134	93	0.00816	0.04242	0.0612	298.0	298.0	298.0	0	0	1	-29.999999999999996	29.999999999999996								
	135	92	0.00816	0.04242	0.0612	298.0	298.0	298.0	0	0	1	-29.999999999999996	29.999999999999996								
	93	90	0.00519	0.03839	0.05875	353.0	353.0	353.0	0	0	1	-29.999999999999996	29.999999999999996								
	92	87	0.00213	0.01403	0.0226	250.0	250.0	250.0	0	0	1	-29.999999999999996	29.999999999999996								
	129	92	0.00463	0.02775	0.04612	267.0	267.0	267.0	0	0	1	-29.999999999999996	29.999999999999996								
	118	86	0.01122	0.07074	0.11571	180.0	180.0	180.0	0	0	1	-29.999999999999996	29.999999999999996								
	125	133	0.00601	0.04147	0.07364	308.0	308.0	308.0	0	0	1	-29.999999999999996	29.999999999999996								
	106	83	0.00207	0.01279	0.02055	197.0	197.0	197.0	0	0	1	-29.999999999999996	29.999999999999996								
	101	105	0.00136	0.0099	0.01586	350.0	350.0	350.0	0	0	1	-29.999999999999996	29.999999999999996								
	146	102	0.00058	0.00417	0.00684	341.0	341.0	341.0	0	0	1	-29.999999999999996	29.999999999999996								
	150	90	0.00085	0.00632	0.00931	354.0	354.0	354.0	0	0	1	-29.999999999999996	29.999999999999996								
	151	91	0.00085	0.00612	0.00964	349.0	349.0	349.0	0	0	1	-29.999999999999996	29.999999999999996								
	117	91	0.00159	0.01112	0.01913	344.0	344.0	344.0	0	0	1	-29.999999999999996	29.999999999999996								
	142	119	0.00314	0.02159	0.03839	341.0	341.0	341.0	0	0	1	-29.999999999999996	29.999999999999996								
	143	126	0.00455	0.03157	0.05531	231.0	231.0	231.0	0	0	1	-29.999999999999996	29.999999999999996								
	119	99	0.00145	0.01008	0.01719	231.0	231.0	231.0	0	0	1	-29.999999999999996	29.999999999999996								
	120	110	0.00384	0.02721	0.04517	231.0	231.0	231.0	0	0	1	-29.999999999999996	29.999999999999996								
	127	94	0.00777	0.04128	0.06391	197.0	197.0	197.0	0	0	1	-29.999999999999996	29.999999999999996								
	104	92	0.00446	0.03041	0.04867	180.0	180.0	180.0	0	0	1	-29.999999999999996	29.999999999999996								
	133	123	0.00589	0.03506	0.05235	267.0	267.0	267.0	0	0	1	-29.999999999999996	29.999999999999996								
	124	114	0.00316	0.02378	0.03527	231.0	231.0	231.0	0	0	1	-29.999999999999996	29.999999999999996								
	132	93	0.00184	0.0126	0.0224	231.0	231.0	231.0	0	0	1	-29.999999999999996	29.999999999999996								
	121	103	0.00171	0.00961	0.01424	250.0	250.0	250.0	0	0	1	-29.999999999999996	29.999999999999996								
	113	93	0.00341	0.02442	0.03997	317.0	317.0	317.0	0	0	1	-29.999999999999996	29.999999999999996								
	133	92	0.00184	0.0126	0.02239	231.0	231.0	231.0	0	0	1	-29.999999999999996	29.999999999999996								
	98	112	0.0057	0.04149	0.06617	341.0	341.0	341.0	0	0	1	-29.999999999999996	29.999999999999996								
	141	134	0.00461	0.02492	0.0356	266.0	266.0	266.0	0	0	1	-29.999999999999996	29.999999999999996								
	140	125	0.00215	0.01333	0.02211	250.0	250.0	250.0	0	0	1	-29.999999999999996	29.999999999999996								
	115	85	0.00079	0.00488	0.00726	137.0	137.0	137.0	0	0	1	-29.999999999999996	29.999999999999996								
	116	84	0.00079	0.00488	0.00724	137.0	137.0	137.0	0	0	1	-29.999999999999996	29.999999999999996								
	108	144	0.00241	0.02782	0.77066	793.0	793.0	793.0	0	0	1	-29.999999999999996	29.999999999999996								
	97	145	0.00213	0.02432	0.67744	789.0	789.0	789.0	0	0	1	-29.999999999999996	29.999999999999996								
	138	130	0.00091	0.0104	0.28989	789.0	789.0	789.0	0	0	1	-29.999999999999996	29.999999999999996								
	139	137	0.00312	0.03563	0.99107	789.0	789.0	789.0	0	0	1	-29.999999999999996	29.999999999999996								
	130	145	0.00092	0.01051	0.29293	789.0	789.0	789.0	0	0	1	-29.999999999999996	29.999999999999996								
	198	177	0.01039	0.08983	0.11422	356.0	356.0	356.0	0	0	1	-29.999999999999996	29.999999999999996								
	199	178	0.01039	0.08983	0.11422	356.0	356.0	356.0	0	0	1	-29.999999999999996	29.999999999999996								
	201	177	0.01455	0.0813	0.13279	267.0	267.0	267.0	0	0	1	-29.999999999999996	29.999999999999996								
	202	178	0.01455	0.0813	0.13279	267.0	267.0	267.0	0	0	1	-29.999999999999996	29.999999999999996								
	156	202	0.00519	0.03965	0.05836	317.0	317.0	317.0	0	0	1	-29.999999999999996	29.999999999999996								
	156	166	0.00083	0.00645	0.00951	317.0	317.0	317.0	0	0	1	-29.999999999999996	29.999999999999996								
	189	161	0.01105	0.08107	0.12824	341.0	341.0	341.0	0	0	1	-29.999999999999996	29.999999999999996								
	157	177	0.00597	0.04473	0.06735	317.0	317.0	317.0	0	0	1	-29.999999999999996	29.999999999999996								
	196	198	0.01736	0.10969	0.16268	287.0	287.0	287.0	0	0	1	-29.999999999999996	29.999999999999996								
	173	199	0.00938	0.06093	0.08934	332.0	332.0	332.0	0	0	1	-29.999999999999996	29.999999999999996								
	176	178	0.01246	0.09134	0.14349	349.0	349.0	349.0	0	0	1	-29.999999999999996	29.999999999999996								
	154	158	0.00514	0.03826	0.05933	231.0	231.0	231.0	0	0	1	-29.999999999999996	29.999999999999996								
	169	164	0.01062	0.0789	0.12085	317.0	317.0	317.0	0	0	1	-29.999999999999996	29.999999999999996								
	175	205	0.00769	0.0569	0.08673	231.0	231.0	231.0	0	0	1	-29.999999999999996	29.999999999999996								
	175	204	0.00225	0.01667	0.02541	286.0	286.0	286.0	0	0	1	-29.999999999999996	29.999999999999996								
	196	168	0.01851	0.1088	0.14435	250.0	250.0	250.0	0	0	1	-29.999999999999996	29.999999999999996								
	200	195	0.00236	0.01411	0.02031	229.0	229.0	229.0	0	0	1	-29.999999999999996	29.999999999999996								
	195	161	0.00355	0.02607	0.04096	341.0	341.0	341.0	0	0	1	-29.999999999999996	29.999999999999996								
	196	191	0.013	0.07589	0.11484	267.0	267.0	267.0	0	0	1	-29.999999999999996	29.999999999999996								
	195	174	0.00934	0.0539	0.08683	287.0	287.0	287.0	0	0	1	-29.999999999999996	29.999999999999996								
	168	152	0.00698	0.0374	0.05463	303.0	303.0	303.0	0	0	1	-29.999999999999996	29.999999999999996								
	167	153	0.00436	0.03202	0.0503	352.0	352.0	352.0	0	0	1	-29.999999999999996	29.999999999999996								
	188	168	0.0006	0.00351	0.00555	316.0	316.0	316.0	0	0	1	-29.999999999999996	29.999999999999996								
	189	167	0.0006	0.00351	0.00555	316.0	316.0	316.0	0	0	1	-29.999999999999996	29.999999999999996								
	176	164	0.01058	0.07762	0.12203	231.0	231.0	231.0	0	0	1	-29.999999999999996	29.999999999999996								
	182	169	0.00469	0.03486	0.05338	317.0	317.0	317.0	0	0	1	-29.999999999999996	29.999999999999996								
	170	162	0.00568	0.04012	0.07033	317.0	317.0	317.0	0	0	1	-29.999999999999996	29.999999999999996								
	193	162	0.00105	0.00733	0.01258	231.0	231.0	231.0	0	0	1	-29.999999999999996	29.999999999999996								
	194	182	0.00744	0.05397	0.09307	231.0	231.0	231.0	0	0	1	-29.999999999999996	29.999999999999996								
	202	155	0.00221	0.01618	0.02541	231.0	231.0	231.0	0	0	1	-29.999999999999996	29.999999999999996								
	203	201	0.00525	0.03837	0.06052	231.0	231.0	231.0	0	0	1	-29.999999999999996	29.999999999999996								
	206	198	0.00236	0.01746	0.02676	341.0	341.0	341.0	0	0	1	-29.999999999999996	29.999999999999996								
	180	159	0.00274	0.02778	0.69846	717.0	717.0	717.0	0	0	1	-29.999999999999996	29.999999999999996								
	186	160	0.00171	0.01741	0.45456	717.0	717.0	717.0	0	0	1	-29.999999999999996	29.999999999999996								
	184	187	0.00136	0.01599	0.41965	800.0	800.0	800.0	0	0	1	-29.999999999999996	29.999999999999996								
	197	172	0.00373	0.04344	1.172	661.0	661.0	661.0	0	0	1	-29.999999999999996	29.999999999999996								
	214	222	0.02738	0.14254	0.20047	222.00000000000003	222.00000000000003	222.00000000000003	0	0	1	-29.999999999999996	29.999999999999996								
	228	234	0.02709	0.15992	0.26125	197.0	197.0	197.0	0	0	1	-29.999999999999996	29.999999999999996								
	215	239	0.01909	0.11277	0.16673	197.0	197.0	197.0	0	0	1	-29.999999999999996	29.999999999999996								
...
];

%%-----  OPF Data  -----%%
%% cost data
%    1    startup    shutdown    n    x1    y1    ...    xn    yn
%    2    startup    shutdown    n    c(n-1)    ...    c0
mpc.gencost = [
	2	0.0	0.0	2	158.61	0.0
	2	0.0	0.0	2	158.61	0.0
	2	0.0	0.0	2	107.03	0.0
	2	0.0	0.0	2	107.03	0.0
	2	0.0	0.0	2	107.03	0.0
	2	0.0	0.0	2	107.03	0.0
	2	0.0	0.0	2	107.03	0.0
	2	0.0	0.0	2	107.03	0.0
	2	0.0	0.0	2	107.03	0.0
	2	0.0	0.0	2	107.03	0.0
	2	0.0	0.0	2	107.03	0.0
	2	0.0	0.0	2	107.03	0.0
	2	0.0	0.0	2	107.03	0.0
	2	0.0	0.0	2	143.52	0.0
	2	0.0	0.0	2	143.52	0.0
	2	0.0	0.0	2	143.52	0.0
	2	0.0	0.0	2	143.52	0.0
	2	0.0	0.0	2	143.52	0.0
	2	0.0	0.0	2	143.52	0.0
	2	0.0	0.0	2	143.52	0.0
	2	0.0	0.0	2	143.52	0.0
	2	0.0	0.0	2	148.16	0.0
	2	0.0	0.0	2	148.16	0.0
	2	0.0	0.0	2	148.16	0.0
	2	0.0	0.0	2	148.16	0.0
	2	0.0	0.0	2	148.16	0.0
	2	0.0	0.0	2	148.16	0.0
	2	0.0	0.0	2	148.16	0.0
	2	0.0	0.0	2	134.04	0.0
	2	0.0	0.0	2	134.04	0.0
	2	0.0	0.0	2	134.04	0.0
	2	0.0	0.0	2	134.04	0.0
	2	0.0	0.0	2	134.04	0.0
	2	0.0	0.0	2	126.62	0.0
	2	0.0	0.0	2	126.62	0.0
	2	0.0	0.0	2	0.0	0.0
	2	0.0	0.0	2	0.0	0.0
	2	0.0	0.0	2	0.0	0.0
	2	0.0	0.0	2	130.49	0.0
	2	0.0	0.0	2	130.49	0.0
	2	0.0	0.0	2	132.33	0.0
	2	0.0	0.0	2	132.33	0.0
	2	0.0	0.0	2	136.59	0.0
	2	0.0	0.0	2	136.59	0.0
	2	0.0	0.0	2	139.96	0.0
	2	0.0	0.0	2	128.21	0.0
	2	0.0	0.0	2	128.21	0.0
	2	0.0	0.0	2	128.21	0.0
	2	0.0	0.0	2	128.21	0.0
	2	0.0	0.0	2	128.21	0.0
	2	0.0	0.0	2	137.4	0.0
	2	0.0	0.0	2	137.4	0.0
	2	0.0	0.0	2	137.4	0.0
	2	0.0	0.0	2	137.4	0.0
	2	0.0	0.0	2	129.99	0.0
	2	0.0	0.0	2	129.99	0.0
	2	0.0	0.0	2	129.99	0.0
	2	0.0	0.0	2	135.6	0.0
	2	0.0	0.0	2	163.16	0.0
	2	0.0	0.0	2	163.16	0.0
	2	0.0	0.0	2	163.16	0.0
	2	0.0	0.0	2	163.16	0.0
	2	0.0	0.0	2	163.16	0.0
	2	0.0	0.0	2	163.16	0.0
	2	0.0	0.0	2	163.16	0.0
	2	0.0	0.0	2	139.01	0.0
	2	0.0	0.0	2	139.01	0.0
	2	0.0	0.0	2	139.01	0.0
	2	0.0	0.0	2	139.01	0.0
	2	0.0	0.0	2	139.01	0.0
	2	0.0	0.0	2	139.01	0.0
	2	0.0	0.0	2	139.01	0.0
	2	0.0	0.0	2	139.01	0.0
	2	0.0	0.0	2	125.48	0.0
	2	0.0	0.0	2	125.48	0.0
	2	0.0	0.0	2	125.48	0.0
	2	0.0	0.0	2	125.48	0.0
	2	0.0	0.0	2	125.48	0.0
	2	0.0	0.0	2	137.4	0.0
	2	0.0	0.0	2	137.4	0.0
	2	0.0	0.0	2	137.4	0.0
	2	0.0	0.0	2	137.4	0.0
	2	0.0	0.0	2	137.4	0.0
	2	0.0	0.0	2	0.0	0.0
	2	0.0	0.0	2	0.0	0.0
	2	0.0	0.0	2	0.0	0.0
	2	0.0	0.0	2	0.0	0.0
	2	0.0	0.0	2	0.0	0.0
	2	0.0	0.0	2	0.0	0.0
	2	0.0	0.0	2	0.0	0.0
	2	0.0	0.0	2	0.0	0.0
	2	0.0	0.0	2	0.0	0.0
	2	0.0	0.0	2	0.0	0.0
	2	0.0	0.0	2	0.0	0.0
	2	0.0	0.0	2	0.0	0.0
	2	0.0	0.0	2	0.0	0.0
	2	0.0	0.0	2	107.03	0.0
	2	0.0	0.0	2	0.0	0.0
	2	0.0	0.0	2	0.0	0.0
	2	0.0	0.0	2	0.0	0.0
	2	0.0	0.0	2	0.0	0.0
	2	0.0	0.0	2	0.0	0.0
	2	0.0	0.0	2	0.0	0.0
	2	0.0	0.0	2	0.0	0.0
	2	0.0	0.0	2	0.0	0.0
	2	0.0	0.0	2	0.0	0.0
	2	0.0	0.0	2	0.0	0.0
	2	0.0	0.0	2	0.0	0.0
	2	0.0	0.0	2	0.0	0.0
	2	0.0	0.0	2	0.0	0.0
	2	0.0	0.0	2	0.0	0.0
	2	0.0	0.0	2	0.0	0.0
	2	0.0	0.0	2	0.0	0.0
	2	0.0	0.0	2	0.0	0.0
	2	0.0	0.0	2	0.0	0.0
	2	0.0	0.0	2	0.0	0.0
	2	0.0	0.0	2	0.0	0.0
	2	0.0	0.0	2	0.0	0.0
	2	0.0	0.0	2	0.0	0.0
	2	0.0	0.0	2	0.0	0.0
	2	0.0	0.0	2	0.0	0.0
	2	0.0	0.0	2	0.0	0.0
	2	0.0	0.0	2	158.61	0.0
	2	0.0	0.0	2	158.61	0.0
	2	0.0	0.0	2	158.61	0.0
	2	0.0	0.0	2	0.0	0.0
	2	0.0	0.0	2	0.0	0.0
	2	0.0	0.0	2	0.0	0.0
	2	0.0	0.0	2	0.0	0.0
	2	0.0	0.0	2	0.0	0.0
	2	0.0	0.0	2	0.0	0.0
	2	0.0	0.0	2	0.0	0.0
	2	0.0	0.0	2	0.0	0.0
	2	0.0	0.0	2	0.0	0.0
	2	0.0	0.0	2	0.0	0.0
	2	0.0	0.0	2	0.0	0.0
	2	0.0	0.0	2	0.0	0.0
	2	0.0	0.0	2	0.0	0.0
	2	0.0	0.0	2	0.0	0.0
	2	0.0	0.0	2	0.0	0.0
	2	0.0	0.0	2	0.0	0.0
	2	0.0	0.0	2	0.0	0.0
	2	0.0	0.0	2	0.0	0.0
	2	0.0	0.0	2	0.0	0.0
	2	0.0	0.0	2	0.0	0.0
	2	0.0	0.0	2	0.0	0.0
	2	0.0	0.0	2	0.0	0.0
	2	0.0	0.0	2	0.0	0.0
	2	0.0	0.0	2	0.0	0.0
	2	0.0	0.0	2	0.0	0.0
	2	0.0	0.0	2	0.0	0.0
	2	0.0	0.0	2	0.0	0.0
	2	0.0	0.0	2	0.0	0.0
	2	0.0	0.0	2	0.0	0.0
	2	0.0	0.0	2	0.0	0.0
	2	0.0	0.0	2	0.0	0.0
	2	0.0	0.0	2	0.0	0.0
	2	0.0	0.0	2	0.0	0.0
	2	0.0	0.0	2	0.0	0.0
	2	0.0	0.0	2	0.0	0.0
	2	0.0	0.0	2	0.0	0.0
	2	0.0	0.0	2	0.0	0.0
	2	0.0	0.0	2	0.0	0.0
	2	0.0	0.0	2	0.0	0.0
	2	0.0	0.0	2	0.0	0.0
	2	0.0	0.0	2	0.0	0.0
	2	0.0	0.0	2	0.0	0.0
	2	0.0	0.0	2	143.52	0.0
	2	0.0	0.0	2	143.52	0.0
	2	0.0	0.0	2	0.0	0.0
	2	0.0	0.0	2	0.0	0.0
	2	0.0	0.0	2	0.0	0.0
	2	0.0	0.0	2	0.0	0.0
	2	0.0	0.0	2	0.0	0.0
	2	0.0	0.0	2	0.0	0.0
	2	0.0	0.0	2	0.0	0.0
	2	0.0	0.0	2	0.0	0.0
	2	0.0	0.0	2	0.0	0.0
	2	0.0	0.0	2	0.0	0.0
	2	0.0	0.0	2	0.0	0.0
	2	0.0	0.0	2	148.16	0.0
	2	0.0	0.0	2	0.0	0.0
	2	0.0	0.0	2	0.0	0.0
	2	0.0	0.0	2	0.0	0.0
	2	0.0	0.0	2	0.0	0.0
	2	0.0	0.0	2	0.0	0.0
	2	0.0	0.0	2	0.0	0.0
	2	0.0	0.0	2	0.0	0.0
	2	0.0	0.0	2	0.0	0.0
	2	0.0	0.0	2	0.0	0.0
	2	0.0	0.0	2	0.0	0.0
	2	0.0	0.0	2	0.0	0.0
	2	0.0	0.0	2	0.0	0.0
	2	0.0	0.0	2	157.0	0.0
	2	0.0	0.0	2	157.0	0.0
	2	0.0	0.0	2	157.0	0.0
	2	0.0	0.0	2	157.0	0.0
	2	0.0	0.0	2	0.0	0.0
	2	0.0	0.0	2	0.0	0.0
	2	0.0	0.0	2	0.0	0.0
...
];

